pcf 
* control data 
restart  estimation